7
	Energy:       0.1936087
C         -3.15617        2.59898        0.79547
C         -1.79169        2.11570        0.42917
O         -0.80893        2.56621        0.99508
H         -1.66947        1.36193       -0.34183
H         -3.35300        2.38970        1.86780
H         -3.91803        2.07820        0.17854
H         -3.22824        3.69190        0.61449
