12
	Energy:      10.5736998
C         -4.75065        4.40835        0.18715
C         -3.39167        4.61769       -0.07107
C         -2.59698        3.56322       -0.53355
C         -3.16127        2.29943       -0.73782
C         -4.52025        2.09010       -0.47960
C         -5.31494        3.14456       -0.01711
H         -5.36545        5.22412        0.54495
H         -2.95512        5.59539        0.08696
H         -1.54564        3.72516       -0.73332
H         -2.54648        1.48367       -1.09562
H         -4.95680        1.11239       -0.63763
H         -6.36628        2.98262        0.18266
