12
	Energy:       1.8189833
C         -3.34671        2.00459       -0.05378
C         -1.84487        2.03682        0.02800
C         -3.96142        2.50160        1.24935
H         -3.71595        0.97469       -0.25425
H         -3.67377        2.66115       -0.88784
C         -1.10318        0.93455       -0.11404
H         -1.34922        2.98681        0.20661
H         -1.56085       -0.03332       -0.29425
H         -0.02176        0.99745       -0.04942
H         -3.65541        1.84663        2.09313
H         -5.06880        2.48512        1.16893
H         -3.63590        3.54318        1.45874
