7
	Energy:       3.4426418
N         -2.01562        2.68960       -0.25186
C         -0.56761        2.63379       -0.09884
H         -2.46188        2.52308        0.67923
H         -2.31829        1.92817       -0.90176
H         -0.23326        3.43630        0.59173
H         -0.08064        2.78979       -1.08438
H         -0.25564        1.64788        0.30993
