6
	Energy:       6.5910623
N         -1.97820        2.70516       -0.24864
N         -0.58591        2.63842       -0.10053
H         -0.29625        3.42006        0.53109
H         -0.15663        2.81961       -1.03687
H         -2.40701        2.50019        0.68306
H         -2.26688        1.94051       -0.90129
