8
	Energy:       1.9908613
C         -1.44673        2.80824       -0.07813
O         -1.78998        3.80792       -0.69188
N         -1.18291        1.66325       -0.74926
N         -1.33221        2.85136        1.26946
H         -1.53168        3.72026        1.78651
H         -1.04365        2.01512        1.79805
H         -1.26824        1.62382       -1.77554
H         -0.89270        0.81388       -0.24298
