12
	Energy:      10.5736998
C         -2.97941        1.62819        0.59011
C         -2.08002        1.48795       -0.47232
C         -1.21012        0.39297       -0.51254
C         -1.23961       -0.56177        0.50968
C         -2.13900       -0.42153        1.57210
C         -3.00890        0.67345        1.61232
H         -3.65239        2.47530        0.62122
H         -2.05721        2.22657       -1.26314
H         -2.16182       -1.16014        2.36292
H         -3.70469        0.78195        2.43424
H         -0.51433        0.28448       -1.33446
H         -0.56664       -1.40887        0.47856
